168
valinomycin_geomOpt_DFT-b3lyp_cc-pVTZ_ADMM2-PBEX_3-21G (in Angstrom)
H      0.11457881593812     -0.81403046907342     -2.74556191204382
H      0.26249048729967     -2.58694255725822     -4.44325313290175
H      0.78748836503623     -1.56203888390408      2.79433426508583
H      0.71359243351222     -3.00196356956523     -1.98574077704708
H      0.80381993351000     -4.23404715047878     -4.14594985704779
H      2.75928945788381      3.82631427517795      5.39832721148835
H      2.95672337888962      5.29098363399154      3.22146757239816
H      0.87151973388687     -3.11181037366113      5.51692314525181
H      1.55790883437016      5.40804483451387      2.15195567650628
H      0.79173672626469      3.57403400291907     -7.28852416403465
H      1.30805969969269     -3.71791139211618      3.92359860358417
H      0.57834376320089      4.37907247469769     -5.72759936860753
H      1.14604446747460      1.35504846703083     -6.07366054064669
H      1.93864225422781     -0.85733099788356      6.36004903174328
H      1.80731957642067      3.23444256511339     -0.96077975437731
H      2.96945973236811      2.65520205635875      3.13039839154551
H      1.78663086100748      4.96163763569602     -6.86160615643940
H      2.47953382375896     -3.76843747590093      5.24458584371906
H      3.03355966019648     -1.91979597431612      3.70924793290525
H      2.93961830129144     -2.20378847329452     -4.18887577316099
H      2.89656120283558      5.40467401965494     -0.55361800596411
H      3.50436333742498     -1.63238223412400      6.13947514874426
H      3.17968415745058     -0.08316065019007      5.37333038100273
H      3.45594456509042      0.90994969469228      0.44631310719384
H      2.99206022782871      2.22161252735301     -7.73819334389825
H      2.85581929828170      3.64795927403853     -5.02995676518348
H      3.27211994141382      1.17356999544600     -4.02826664411598
H      3.86718252555353     -1.45657205084865      0.47608757888505
H      4.49402616395253      4.64027845792640     -0.52970300436016
H      4.05568536613419     -2.30298929846337     -6.35703633544512
H      3.55282902137222      4.68218707117491     -2.02879163195270
H      3.87202233672040      3.68912292891360     -7.31423780347072
H      4.62989448167454     -3.95231197140750     -4.58570426452378
H      4.23439869104932      2.17984617625377     -6.48714358860944
H      4.59616276310889     -2.98203255474229     -1.34870626492852
H      5.44365900258042      0.20719884834641      1.47121254559567
H      5.38704099650579      0.18443203312343     -1.58032452606715
H      5.14926758608452     -0.07926333877322     -6.45871295053887
H      6.01847314373011     -3.63559703704750     -5.62123932987638
H      5.57593296294466     -3.23856618313332      0.08500361804384
H      5.93678511465895     -2.90807431154334     -4.02048141026185
H      6.23196995152434     -2.32417750249967     -1.26842212320671
H      6.01802626865704     -1.43158530150640      1.72404424426839
H      6.23009585878996     -0.52884677282536     -5.13833305809584
H      6.75144816338741     -0.43455449195793      0.46907262659769
H      6.33422725213951     -1.35660865761172     -6.69048917208040
H      0.20358852100251     -5.45019745296187     -2.05441158590827
H      1.48481318939579      6.08834432076662      3.76864951456346
H      1.27483203527944      2.91550751306254      5.69431281179789
H      0.42404943683807      1.52207882375654      3.96863398257042
H     -0.76414332581255      1.85459680577080     -2.13717940060205
H      1.26069283370273      4.66845081042127      5.78834166443964
H     -0.90202817436962     -3.90707000867617     -4.42639497875662
H      0.25251455059914      3.91308101723045      3.64698695218928
H     -1.51475113906192     -5.09073474803877     -2.18655580212768
H     -0.62559919240789     -4.65919166033991     -0.72345876866927
H     -1.92475198322040      3.29474351926685     -3.76474580354200
H     -2.14885687693746     -1.66641532419138      7.53816039230480
H     -1.79203798951524      0.19407457384038      5.77189018647367
H     -1.83737269367493     -2.90455498542854      6.31417838595330
H     -2.20390662829968     -2.56850065139314     -2.70183143331160
H     -2.56806766251218     -2.77049513135402      1.59034744015708
H     -3.09546234671775      2.42916554538110     -2.76509336849150
H     -2.79333779783297      1.89170280774034     -4.42342277922623
H     -3.34002151684954     -2.92287387891791      7.22212336887769
H     -2.35078133892150      2.63377396195204      1.90693142088481
H     -3.53592937491824     -4.46360244939800      3.10125464262651
H     -3.98964545909278     -0.79984512409061     -0.70956074209357
H     -3.48707025977992     -4.87388716193985      0.65089923609068
H     -4.03083265986661      0.10347045630488      7.10833424504394
H     -3.70471792911860     -2.01880825581435      4.92363548820678
H     -3.58156318887625      0.00064364750224      3.42676720765049
H     -5.39527182948090      1.06617836458377     -1.70717432116917
H     -5.15036884407792     -3.77574284709760      2.96133491613130
H     -2.91595887031951      4.31916936343279      3.69227302279367
H     -5.13734994965708     -1.23460997621387      6.80819441222529
H     -4.88024700305321     -5.47867673035577      2.57244308442783
H     -4.95033373153641      0.03149366981086      5.60324702995629
H     -6.35894907224493      2.97078318123591     -0.42467875189306
H     -4.50236450351145      3.55688297739283      3.87774352190140
H     -5.25618549840714     -3.92764349135951     -0.83926641653696
H     -6.39932308613414     -1.21617815567267     -1.55838411445881
H     -4.06462335385656      4.33469588355578      2.34565600511038
H     -5.94985535419204      0.32011890397040      1.19299413475531
H     -5.89568709273375     -5.16322535110514      0.24081293679778
H     -7.54164530433221      2.33349354251793     -1.55611609696977
H     -6.19766388396393     -3.46519910751996      0.58338114770665
H     -7.66943027431328      1.93140192282627      0.15224112164201
H     -7.55717782812941     -0.06787062692988     -2.21653227901692
H     -7.69442249651208     -0.58805262220512     -0.53908935017474
C      1.86677096587842      5.25177378483043      3.18465136385048
C      1.16576428529136     -0.97553263165280      3.63010039096479
C      1.89307730733911      2.72114752696427      2.97680936913265
C      0.74048624041860      2.18535912633927     -4.14554462991459
C      1.66079788483759      2.86680942739620      1.47207963986859
C      1.79073129799635      0.29673291330989      3.05633558356469
C      1.68252777271193     -3.17836965056637      4.79191128761274
C      1.31460733357421      4.06347940099911     -6.46397220216841
C      2.21039795275169     -1.79246214944486      4.41334758888383
C      1.70793441025368      1.86391774940969     -5.29256628359410
C      2.73629097924977     -1.04173872812024      5.64073965488167
C      2.83509166892271      3.25785722050965     -0.60135430114856
C      2.65653966050527     -0.39814083481180     -5.22067949892510
C      2.37189966256704      3.13137493453553     -5.85996826664431
C      3.59095485863691     -1.40158354592764     -4.53041078652096
C      3.58399324418443     -0.72131109872534     -2.23098225382810
C      3.49048898475600      4.58346267022875     -0.94921167923889
C      3.55910311080024      2.07927118904828     -1.24751045749690
C      3.43039066896110      2.77908142430360     -6.90842016051651
C      4.46494707329189     -0.15921972167753     -1.11244028479727
C      4.63866343061619     -1.97098397486422     -5.49714009927810
C      4.79571845607301     -1.22882762904834     -0.04888034398173
C      5.34455077929589     -3.18723140898856     -4.89155564980482
C      5.32667924020830     -2.51448202854985     -0.68979560321209
C      5.80888506440398     -0.68109350236994      0.96207123633772
C      5.64400196211226     -0.91753815410636     -5.97050544961736
C      0.00207937433310     -3.52156715091805     -3.95112131289315
C      1.33707753449275      3.93283766429939      3.75615749982485
C      1.67799258775121      3.82057965249420      5.24572553627662
C     -0.20935480980931     -3.36449805448043     -2.44116915013902
C     -0.56227530560523     -4.71499434758078     -1.80946383893963
C     -1.23102557659535      1.41022726704028     -3.01728823932745
C     -1.29695462900165     -2.30725446921760     -2.15869469499920
C     -1.13834193290581     -1.23923486205653      4.32452053631893
C     -1.75029487384648      0.02833425225167     -2.61991742101756
C     -1.66128673403537     -2.24179129299757     -0.67322308516680
C     -2.33431992348377      2.31510513519885     -3.53170232656654
C     -2.25164248569582     -0.46064208240776      5.03458507723691
C     -2.60650333361596     -2.26946956696547      6.75099679364186
C     -2.41981186795122      1.65039009391788      3.78642023597301
C     -3.40439532304222     -2.79741322278470      0.89471022738236
C     -3.28439622642594     -1.38130481674998      5.70210253122265
C     -3.10299933999675      2.43999462099898      2.67102694035186
C     -4.33578088353189      1.64403098603246      0.75899311866163
C     -4.24830095797493     -1.55472237056373      1.18743583037275
C     -4.17681244525137     -4.12530464889152      1.04711523319573
C     -4.45200597786960     -4.47767590652720      2.51169117233453
C     -4.41573339613992     -0.56743661018435      6.33739624420781
C     -5.28717459372564      0.51305745261004      0.35124107185255
C     -3.68735656020196      3.74901222246191      3.18090735157905
C     -6.10295351510495      0.85123060500115     -0.90593943325731
C     -5.45418707336347     -4.16736772240610      0.20425989855479
C     -6.96260412234514      2.09746463658181     -0.66379092758148
C     -6.98413053808930     -0.32872722254553     -1.32707088974451
N      1.29014282107209      1.48023233173210      3.44232651739267
N      2.66525234780210      0.88234725255956     -4.78891108651148
N      3.80060551110444      0.98646659664985     -0.50467054484919
N     -0.86893341175454     -0.98732765930800     -2.59939231645568
N     -2.85968178444048      0.40022764006296      4.02019317415561
N     -4.47430345291228     -0.69241978331710      0.17639136823423
O     -0.20480831934790      1.22651825556651     -4.03350235413310
O      0.58946908746175      2.78403589981108      0.92818014690023
O      0.81206189735732      3.14283840308708     -3.41512803829463
O      1.94524239508308     -0.81926677938917     -6.12432393496370
O      2.74741705356640      0.19237437350011      2.28362053347452
O      2.41635666943588     -1.00955779596850     -2.10955730456313
O      2.83083020875908      3.10691744955969      0.83833003439301
O      3.87807847234304      2.14854110541255     -2.43709637403673
O      4.27755596873090     -0.85650839926475     -3.37689265478549
O      0.04544639351894     -0.60065370338321      4.46958216500499
O     -0.95958465902955     -1.77917692341467      0.18841706497652
O     -1.29454394618323     -2.24128518225085      3.67545382270597
O     -1.49990936075584      2.18240067409197      4.41014098094143
O     -2.92761400431681     -0.12287275467150     -2.29107025527124
O     -3.79046792166702      2.41990538139621      0.01750544683167
O     -2.88794283343893     -2.77231438540110     -0.45979470607149
O     -4.69000415017275     -1.39347874020955      2.32690889157923
O     -4.14326191907944      1.61617707031644      2.09788990831275