168
valinomycin_geomOpt_DFT-b3lyp_6-31Gs_ADMM2-KT3X_3-21G (in Angstrom)
H      0.32771478948704     -0.84277911777642     -2.87472231271096
H      0.31123898646179     -2.54357699278053     -4.58329011347792
H      0.34245787190403     -1.48618659571444      2.42202768671224
H      0.76391486307692     -3.11754491220570     -2.15512238872040
H      0.62984928081785     -4.26868324803236     -4.38237628148685
H      0.88879520898118      4.38370493131995      4.52632634031488
H      1.42702127501183      5.59907860888321      2.22916991533339
H      0.93595496241927     -3.00046989730060      5.17746605516811
H      0.37802234631456      5.26946480813027      0.83652725791884
H      1.24033265801385      3.20733370603901     -7.71401907948705
H      1.17531613953381     -3.58058858018769      3.52458482603291
H      1.00589387821344      4.15622494392287     -6.22849157414755
H      1.41857021986029      1.10336780419961     -6.26629281363481
H      1.81208050658036     -0.59334561343278      5.83063334176849
H      1.90988669272415      3.42665387752439     -1.62790521780400
H      1.94843568755099      3.03558328036571      2.64850535431526
H      2.28567418900140      4.59093780703104     -7.36630692609168
H      2.54356177332643     -3.50632493437378      4.65474608656560
H      2.72585208350526     -1.63027231578812      3.09100641514621
H      2.99533945396600     -2.42715456138157     -4.10289389563501
H      3.12078390256543      5.47264475474205     -0.91390094307845
H      3.41179950083186     -1.26509176119383      5.47713225004084
H      2.89872267133988      0.23892120420567      4.70230180769989
H      3.22354930717913      1.03525800705659      0.26322893880429
H      3.39763790336431      1.70693762104941     -7.94483827774541
H      3.23148797316092      3.40010356801245     -5.37933988177238
H      3.51308692878868      0.95998061307298     -4.18005364931813
H      3.58774589135791     -1.34689390965890      0.49506295184194
H      4.56485851116941      4.51511304208899     -0.51402102663081
H      4.20707916335221     -2.69497299724961     -6.21148028241479
H      4.02705398595869      4.64772975212028     -2.20580521040285
H      4.32276472458682      3.18572183796506     -7.63634019168854
H      4.68287369379346     -4.22907802517647     -4.30061690816202
H      4.60060740907679      1.74715746672545     -6.64447348416159
H      4.48156358988221     -2.99793759299587     -1.14822440521608
H      5.06308292827466      0.36148673176502      1.56223771128712
H      5.34115897806253      0.12546777817054     -1.52386756242934
H      5.34266976518819     -0.49648213410604     -6.43446564665480
H      6.13514725138724     -3.99428867267063     -5.28564185463591
H      5.31757553683226     -3.17054468915647      0.39633456762015
H      5.97400290319758     -3.15082020262085     -3.73757295747055
H      6.11777905396786     -2.34405279152264     -0.94808811632022
H      5.61648986090131     -1.26648556306054      1.95957500135227
H      6.34827377520703     -0.84297997619451     -5.01574829764368
H      6.47698999515980     -0.32347619316566      0.73200937327274
H      6.53578229847601     -1.79958098170586     -6.49470936235524
H     -0.00529715511146     -5.50731490490207     -2.33151562087552
H     -0.26707209433121      6.10941307024435      2.24885251955656
H     -0.46421605660022      3.23985912832164      4.61216413812663
H     -0.44937990683462      1.47721088480083      3.05064357155291
H     -0.37070252482287      2.00765038868963     -2.28040706168035
H     -0.77598705745654      4.95495217252981      4.35885612810472
H     -1.03034526934327     -3.69811607531671     -4.58907955368187
H     -0.99045714618079      3.69826931127838      2.18505359439340
H     -1.68771718464444     -4.96102051510651     -2.36701030686629
H     -0.69406679806677     -4.70129298056075     -0.91963230872938
H     -1.52112006471922      3.31901132866201     -4.03109769991314
H     -1.49787178962321     -2.48652691282526      7.58199788506268
H     -1.68063710926946     -0.33085324755401      6.15570386659990
H     -1.36182196925087     -3.46532087363041      6.10323936737369
H     -2.14231146639399     -2.37347784808358     -2.70244405885821
H     -2.29427435147401     -2.81619568821110      1.56546404372797
H     -2.73692718091115      2.53259682802000     -2.99839455524494
H     -2.38391577606880      1.86546892265215     -4.60256791009958
H     -2.62716109348525     -3.81429605295793      7.28448664092438
H     -3.36215621550045      3.19454614466391      3.94568742299423
H     -3.40271301444804     -4.49488375600194      2.99954707870942
H     -3.50895007244829     -0.40806592536127     -0.41134584593781
H     -3.47458155192263     -4.72642481738231      0.49990651217643
H     -3.59342435288760     -0.92249045808224      7.88079793357763
H     -3.55123860323652     -2.59486021072424      5.29630641805493
H     -3.76106980033196     -0.25425255483018      4.04558026410286
H     -3.77981506216621      1.99727532944420     -0.66519920731335
H     -4.96711935638842     -3.67558730860995      2.96163917111964
H     -4.65923284429720      3.30937932201121      6.08986670369957
H     -4.62066900959508     -2.32570382923162      7.54424956805912
H     -4.84295608105983     -5.36746644704111      2.43248417019052
H     -4.80122356883235     -0.84741971452005      6.58731304488108
H     -4.63982773838089      3.68973703483345      0.94732449439573
H     -5.73763210544359      2.01836570099694      5.50982474441710
H     -5.17799386445594     -3.45673392016183     -0.83237908147247
H     -5.29069621853332      0.32970072451287     -1.74522826161334
H     -5.71513883970130      3.59114109393070      4.68232912895593
H     -5.61058535608712      0.59775633183882      1.33495884996596
H     -5.92586891038371     -4.71881340220789      0.16187593727128
H     -5.46286809564852      3.87230824444691     -0.60304532095215
H     -6.02581883272681     -3.02795750221052      0.66837783437571
H     -6.29331103454856      3.08097262313079      0.74482549645862
H     -5.78682322773990      1.97075345616929     -2.16058923471766
H     -6.69539653658124      1.06335162697848     -0.94047478012670
C      0.41174911331613      5.31126330282917      1.93022016930603
C      0.77806799524371     -0.85202191384774      3.20112689572532
C      0.97081027628924      2.84132925618298      2.19428916253903
C      1.05529023765758      2.11751870876050     -4.41064436049872
C      1.18977274207789      2.79104057034399      0.67923823770782
C      1.25063580752684      0.45183098873469      2.54551457651417
C      1.62964076728780     -2.99555561433691      4.32987905307349
C      1.75691635170898      3.74706007608893     -6.90942410948844
C      1.96881498733385     -1.56745365388953      3.88034268499501
C      2.01024627898095      1.64386965450614     -5.52073850897372
C      2.55342308558632     -0.74408742008773      5.03867555923825
C      2.81107693223146      3.33747876621624     -1.01599634499518
C      2.80401490545069     -0.66779726463826     -5.25219697430197
C      2.75131216762781      2.82685210309484     -6.18179784162570
C      3.68106692280662     -1.65715148697580     -4.46665967008459
C      3.55735116968192     -0.78748181837329     -2.24363112859851
C      3.69011713705602      4.57458701667135     -1.16974158597123
C      3.54252459019202      2.08169960126122     -1.49468797821171
C      3.83105019234799      2.33303545185138     -7.15468727719042
C      4.37005730674370     -0.15925128387018     -1.10623117616112
C      4.76216902085282     -2.30777845329505     -5.34815802561131
C      4.57554227049175     -1.16004069558204      0.05760192299032
C      5.42445386786368     -3.48830038512443     -4.62305445616398
C      5.15307984618209     -2.49138546744894     -0.44689553942340
C      5.48370330377111     -0.55348093938254      1.13822046932597
C      5.80496290758789     -1.29868643196371     -5.85042714824328
C     -0.06519988124118     -3.46163105984768     -4.12312568330149
C     -0.00605024715030      3.98098609301466      2.57792653219590
C     -0.09389383503434      4.13526913118089      4.10524478047607
C     -0.21049921490161     -3.36242656896245     -2.59587629219501
C     -0.68084829043475     -4.70554429787894     -2.01464815541789
C     -0.85831804647000      1.48629284581989     -3.11018282310763
C     -1.17773581688312     -2.21715656112037     -2.20913238650433
C     -1.28855233816511     -1.39782189252846      4.33436854326453
C     -1.43077026609996      0.17286655518677     -2.57142274281593
C     -1.44502399152073     -2.20314411193222     -0.69962614662180
C     -1.94526639882595      2.35901953195785     -3.72949962726588
C     -2.25861352034933     -0.88972114807746      5.41439260827011
C     -2.06814148902107     -3.00582428853670      6.80056681528802
C     -3.03035270103916      1.41362933701033      5.04096579788381
C     -3.16767713695959     -2.69088211810077      0.92051242293132
C     -3.03255922665459     -2.04287069592612      6.08966015842567
C     -3.97930158595376      2.36006683858831      4.28805653552842
C     -3.81801472219187      1.46645969665992      2.08011615545862
C     -3.86037135766381     -1.40494871748205      1.37157375955553
C     -4.07080757195467     -3.94538667518077      0.99112028661353
C     -4.33584496932635     -4.39548694899467      2.43531064992776
C     -4.07290505118643     -1.49851321034775      7.07921347088273
C     -4.62353979961565      0.84759876305814      0.93236967579391
C     -5.09806884509116      2.85082427054869      5.20002399806040
C     -4.77938961270313      1.84443121074077     -0.24193150767031
C     -5.37378741352653     -3.77301564010554      0.19715068652382
C     -5.32259970963517      3.19638997957454      0.24712596033326
C     -5.68933611592765      1.25959328177666     -1.33277708709228
N      0.49123894268735      1.55417980167680      2.68436068013164
N      2.90949124787352      0.64868496379714     -4.94064022105260
N      3.69291320344433      1.04859669575456     -0.64268668396566
N     -0.65604086739571     -0.92673970181953     -2.64174808127236
N     -3.14641909301460      0.08633867446668      4.78588657961299
N     -3.97643029316193     -0.38614657400048      0.49535562663370
O      0.15093802455933      1.15874042578735     -4.10837997695930
O      0.36447387240229      2.44280577735171     -0.13590531668133
O      1.09727172474649      3.20054675679103     -3.86080402665715
O      2.06248381992235     -1.12093396374437     -6.12399641221215
O      2.32691745599488      0.46834900909448      1.92722248587119
O      2.36638467170963     -1.02692959655551     -2.18792094211621
O      2.43455845939521      3.23720915432017      0.37599361879147
O      3.98242764465783      2.05617926988987     -2.65484492233217
O      4.32837114927570     -1.05133808644216     -3.31925285694173
O     -0.25880809760862     -0.53110437425476      4.16970066935682
O     -0.63047362621090     -1.92538408989685      0.15266285275407
O     -1.42430969922665     -2.42072127867358      3.69608937427775
O     -2.25299558224603      1.90055602201437      5.86212894932045
O     -2.57184344361995      0.15059728502483     -2.08521048033187
O     -2.62406070913652      1.69144598815115      2.05246015270742
O     -2.72548626795611     -2.57725354229357     -0.45375296396315
O     -4.30237495868417     -1.32575705962504      2.52975545406099
O     -4.61069648778093      1.74802762070101      3.13870068397617