168
valinomycin_geomOpt_DFT-b3lyp_6-31Gs_ADMM2-PBEX_3-21G (in Angstrom)
H      0.33128738453785     -0.84319029746532     -2.85989502983872
H      0.31389922068021     -2.53917206584863     -4.57703268916321
H      0.36750303288517     -1.49356914005177      2.44917998927767
H      0.76355647236030     -3.12064558807816     -2.14833728566588
H      0.63663483049794     -4.26444221675496     -4.37944418708017
H      0.94840589988271      4.40437843945013      4.54240515332647
H      1.46646928630350      5.59818621184319      2.23056858039160
H      0.93646957402746     -2.97292100520282      5.22983165736498
H      0.40857148772164      5.25229522160754      0.84800708100960
H      1.21106259904553      3.22155328857571     -7.69637387245596
H      1.18408647523725     -3.58014713547824      3.58742038006185
H      0.98654477501553      4.16655586111040     -6.20654518569428
H      1.40698183855184      1.11426184505156     -6.25841844273705
H      1.82520493248399     -0.56614299368182      5.85512276370028
H      1.92997763627754      3.41918582555826     -1.60028021086708
H      1.99688181517230      3.04019001442460      2.67655603388779
H      2.25588955615522      4.60719098488615     -7.35399243263281
H      2.54500487313045     -3.49576307668416      4.72603623774082
H      2.74414994553432     -1.64321380163736      3.13198205785625
H      3.00574223363045     -2.42224047061503     -4.12866390980106
H      3.15648376056233      5.45847950245917     -0.88813677954856
H      3.42426157160173     -1.24707698198457      5.51545788228910
H      2.91827075490596      0.24863535778664      4.71990377095139
H      3.24255084636156      1.01093536834058      0.26703066562947
H      3.36483729321544      1.72686679814573     -7.95111614655708
H      3.22270351477608      3.41245201189363     -5.37878434439247
H      3.51200757957850      0.97023176568615     -4.18107769564678
H      3.59338328571972     -1.37342171490451      0.47780784837687
H      4.60042851368259      4.49253642379209     -0.50736017719005
H      4.21648629911062     -2.66729841037685     -6.24256858046831
H      4.04621711644054      4.63584279452998     -2.19322451969272
H      4.29181999495651      3.20602815987127     -7.64808686847489
H      4.69839574279237     -4.21769468633156     -4.34526696289915
H      4.58174249879346      1.76461027053193     -6.66345936911794
H      4.47577189040909     -3.01664914158503     -1.17939465657383
H      5.08439613005371      0.31869451005162      1.55544169516973
H      5.35550630456004      0.10698932870314     -1.52866678062403
H      5.34553600375556     -0.46118780143371     -6.44124510211846
H      6.14849183252637     -3.97001778706251     -5.33080890772919
H      5.31438562527754     -3.20582153156947      0.36209381772583
H      5.98780354925999     -3.14073927097030     -3.77484659611288
H      6.11594813299205     -2.37238209554405     -0.97758031985994
H      5.62386231647511     -1.31717082430285      1.94118057326656
H      6.35478289541239     -0.82320379687720     -5.02882437744106
H      6.49101837893213     -0.37340958460973      0.71858405403192
H      6.54100829385789     -1.76146779675078     -6.51995532185161
H     -0.00755592872130     -5.50978074047445     -2.33455195546677
H     -0.22883581497797      6.10511731749242      2.25635328832710
H     -0.40797620505852      3.26440281965188      4.65108609789841
H     -0.38024161345887      1.49179816093660      3.14779630697496
H     -0.35660200848157      1.99669975519254     -2.25565867804313
H     -0.71729634288248      4.97607143112565      4.37997156127850
H     -1.02477314200528     -3.69720726335836     -4.58792855731698
H     -0.94675794991816      3.69059680719881      2.22136819755622
H     -1.68941751939572     -4.96107966891645     -2.37352749189110
H     -0.69986653034413     -4.70740641057044     -0.92193070855756
H     -1.50934219468256      3.33427440177354     -3.98813125618115
H     -1.52505530517725     -2.43905915295574      7.59519511924165
H     -1.69349008938349     -0.29862063860173      6.14649280734971
H     -1.37066497537899     -3.43080950341002      6.12663731632789
H     -2.14118256571771     -2.37409677692453     -2.70418510342400
H     -2.30362604872277     -2.82085889315146      1.56622060759265
H     -2.72149365802078      2.55149338130135     -2.94888490044164
H     -2.39153503587202      1.89257780797371     -4.56142979691512
H     -2.64808894355088     -3.77236626198452      7.29716063605450
H     -3.38738787223641      3.20788838789813      3.89760494097800
H     -3.40751798135937     -4.50749358913609      2.99573110669831
H     -3.52936081535892     -0.42293811325911     -0.42191473342917
H     -3.47951523939130     -4.73487168843547      0.49552683107216
H     -3.61942066735952     -0.87363933198520      7.85839703629959
H     -3.55630982328023     -2.57130070666635      5.29048085378035
H     -3.76690440417040     -0.24664785343288      4.02599705274809
H     -3.84362487594425      1.97591247507329     -0.70172354055020
H     -4.97285667554757     -3.68903463574887      2.95928452747993
H     -4.66305275169339      3.32407371462135      6.05635089509817
H     -4.64236011587083     -2.28207324301693      7.52962467885389
H     -4.84739360938259     -5.38011437125050      2.42752355511613
H     -4.81927764061371     -0.81416194648529      6.55614503554134
H     -4.72403229227445      3.66868226971019      0.90066237560839
H     -5.73569352436966      2.01971348857679      5.49478190157840
H     -5.18626987778756     -3.46542906317033     -0.83391153803449
H     -5.33482036314671      0.27120839519428     -1.75476187517025
H     -5.73697099085997      3.58837472390912      4.65884341379167
H     -5.63901040789846      0.57036570447375      1.32714748915123
H     -5.93197324023874     -4.72936638607194      0.16006495257064
H     -5.55830429561189      3.82292266524216     -0.64721809456992
H     -6.03232772136422     -3.03897302220012      0.66881553425679
H     -6.36795667666904      3.02923274276982      0.71221692979969
H     -5.85878271474297      1.90031399270967     -2.18477018422457
H     -6.74550769870628      0.99190371833983     -0.94897464452038
C      0.44982408336851      5.30554289834332      1.94091937081315
C      0.79916246448018     -0.85499814364469      3.22668761183762
C      1.01751589645963      2.84025984306871      2.22810056556163
C      1.05520132323881      2.12318578371956     -4.39655458063386
C      1.22826709173755      2.77813839754600      0.71218062665549
C      1.27689002725481      0.44363611959535      2.56611194461637
C      1.63598734557980     -2.98544596879005      4.38702357322180
C      1.73286279373086      3.76091920803379     -6.89484967410229
C      1.98519311800457     -1.56582191727970      3.91832655073456
C      2.00212479444385      1.65462485941959     -5.51569181782836
C      2.56884169663331     -0.72906576127115      5.06771800776377
C      2.83640735142700      3.32526139169838     -0.99700882308204
C      2.80863202879284     -0.65430265705015     -5.26384459091364
C      2.73592350293086      2.84089502860401     -6.17842992644621
C      3.68900886286074     -1.64757834912008     -4.48718032299609
C      3.56762461235048     -0.79219694718702     -2.25664717504051
C      3.71955158063858      4.55940257807626     -1.15412564103805
C      3.56037194974406      2.06870686015401     -1.48495096650360
C      3.80631150964032      2.35112830967641     -7.16394773635035
C      4.38287850764950     -0.17699199706888     -1.11417034729548
C      4.77092005312413     -2.28681679531452     -5.37587773669487
C      4.58186845207150     -1.18893585324017      0.04103378002347
C      5.43760469367751     -3.47213055289171     -4.66223049889189
C      5.15157793468120     -2.51931913863748     -0.47555948918621
C      5.49632529067701     -0.59725619582032      1.12493751521231
C      5.81076168173699     -1.26952632977552     -5.86809066951554
C     -0.06083954283400     -3.45946763820321     -4.12001046468675
C      0.03912827511818      3.98094178754684      2.60516383871927
C     -0.03783639394648      4.15264851482441      4.13158518639678
C     -0.20956874043912     -3.36381651609069     -2.59271998937289
C     -0.68328580073855     -4.70838838217779     -2.01693541109151
C     -0.85405821294420      1.48878298417318     -3.08802947074836
C     -1.17842314113774     -2.21983448430417     -2.20687460653054
C     -1.28476274151038     -1.38410571632543      4.33965138624915
C     -1.43072611769194      0.17101687027499     -2.56332195408204
C     -1.44934985493222     -2.20953941744390     -0.69803172578968
C     -1.93928801256503      2.37591254983225     -3.68962741355166
C     -2.26432958738126     -0.86486826374174      5.40537963523736
C     -2.08554744085315     -2.96686350133959      6.81232241241462
C     -3.03287824304123      1.43418359045218      4.99920836707189
C     -3.17593874434124     -2.69909651488463      0.91926762530196
C     -3.04478483141270     -2.01196078155245      6.08320622785792
C     -3.99469340168933      2.37105608582898      4.25118510659792
C     -3.84964233162324      1.47223590992072      2.04386835599733
C     -3.87557397148522     -1.41493056673247      1.36497356885177
C     -4.07665866484917     -3.95541351571269      0.98806438262568
C     -4.34099728344924     -4.40771512692988      2.43196278305024
C     -4.09302628484337     -1.45862354997839      7.05971784534150
C     -4.65941625939397      0.82919290104043      0.91258596131062
C     -5.10752493519211      2.85665599238221      5.17388958019000
C     -4.83791928489330      1.81040978977174     -0.27114200483307
C     -5.38067516939274     -3.78305763701362      0.19547866518754
C     -5.40189841189262      3.15752210282499      0.20849701344457
C     -5.74517138820780      1.19956077885187     -1.35011921904145
N      0.53827496036449      1.55655571136109      2.72821206680762
N      2.90786989229180      0.66050983969292     -4.94239827210392
N      3.71000666327435      1.02953289818533     -0.64001544053288
N     -0.65399087419847     -0.92769607638434     -2.63236732700878
N     -3.14762681828777      0.10401176193997      4.75844014638345
N     -3.99995880659148     -0.40140370434609      0.48342379899641
O      0.14635679737118      1.16673066416302     -4.09842664274039
O      0.39802687200142      2.42604615732620     -0.09700787289597
O      1.10748837442340      3.20064562408062     -3.83512627035732
O      2.06824335034240     -1.10408510491445     -6.13960282915089
O      2.33822377764766      0.44473590430647      1.92135867451992
O      2.37537040989638     -1.02919431652967     -2.20231434857147
O      2.47158289457155      3.22378858830782      0.39895764814784
O      3.99565055880140      2.04746894055377     -2.64782538451261
O      4.33726130250035     -1.04978783497349     -3.33526306329211
O     -0.24305243909655     -0.52753710955308      4.18806490121501
O     -0.63656425418623     -1.93254957727832      0.15716136737452
O     -1.42143869975774     -2.40633344604187      3.69966576580462
O     -2.24694372581491      1.93033188014987      5.80847221553140
O     -2.57647138059257      0.14399185811258     -2.08683612224901
O     -2.66069710019871      1.71992298293916      1.99892073660643
O     -2.73043353993297     -2.58579174832790     -0.45488128783627
O     -4.31724341572392     -1.33333147621056      2.52399562682544
O     -4.63387657490074      1.74627905165862      3.11311537551719