20

H         -1.14902        1.00712        0.13592
H         -1.99492       -0.24117        2.89987
H         -1.06662        1.82961        2.34031
H          0.30614        0.88602        2.48051
H         -0.12748       -1.18632       -0.42201
H          0.33591       -1.43117        1.25745
H          2.83606       -0.37106        1.99675
H          3.48463        2.05765       -1.37181
H          1.14863        1.01575       -1.60594
C         -2.24811       -0.58352        1.05302
C          2.63103        0.13428        1.06613
C          3.02693        1.39565       -0.65562
C         -0.96887        0.26788        0.92794
C          0.19845       -0.66422        0.48534
C          1.49423        0.05049        0.28294
N         -0.67901        0.89725        2.22899
N          3.57940        0.97163        0.47572
N          1.75986        0.86910       -0.81740
O         -2.81629       -1.07973        0.07968
O         -2.64668       -0.76603        2.34073
